
     RDKit          3D

 24 27  0  0  0  0  0  0  0  0999 V2000
   46.2717    4.9385    8.5156 N   0  0  0  0  0  0  0  0  0  0  0  0
   45.3720    4.3693    9.3440 C   0  0  0  0  0  0  0  0  0  0  0  0
   44.9275    3.0502    9.3046 C   0  0  0  0  0  0  0  0  0  0  0  0
   45.4620    2.2021    8.3175 C   0  0  0  0  0  0  0  0  0  0  0  0
   46.4103    2.7397    7.4419 C   0  0  0  0  0  0  0  0  0  0  0  0
   46.7549    4.0821    7.5793 C   0  0  0  0  0  0  0  0  0  0  0  0
   47.0578    1.9609    6.3610 C   0  0  0  0  0  0  0  0  0  0  0  0
   47.0797    0.7367    6.3846 O   0  0  0  0  0  0  0  0  0  0  0  0
   47.6088    2.6422    5.3121 N   0  0  0  0  0  0  0  0  0  0  0  0
   43.9664    2.9060   10.3368 C   0  0  0  0  0  0  0  0  0  0  0  0
   43.8615    4.1197   10.9818 C   0  0  0  0  0  0  0  0  0  0  0  0
   44.7280    5.0054   10.3822 N   0  0  0  0  0  0  0  0  0  0  0  0
   44.8690    6.4211   10.6901 C   0  0  0  0  0  0  0  0  0  0  0  0
   45.9945    6.7268   11.6615 C   0  0  0  0  0  0  0  0  0  0  0  0
   45.9629    7.8962   12.4069 N   0  0  0  0  0  0  0  0  0  0  0  0
   46.9106    5.9079   11.8009 O   0  0  0  0  0  0  0  0  0  0  0  0
   42.8934    4.4325   12.1583 C   0  0  1  0  0  0  0  0  0  0  0  0
   43.1684    3.9113   13.5451 C   0  0  0  0  0  0  0  0  0  0  0  0
   43.3707    5.3639   13.2410 C   0  0  0  0  0  0  0  0  0  0  0  0
   46.9576    8.0930   13.4639 C   0  0  0  0  0  0  0  0  0  0  0  0
   47.9369    9.2184   13.0684 C   0  0  0  0  0  0  0  0  0  0  0  0
   47.2587   10.4837   12.7053 N   0  0  0  0  0  0  0  0  0  0  0  0
   46.2441   10.2297   11.6578 C   0  0  0  0  0  0  0  0  0  0  0  0
   45.2477    9.1254   12.0571 C   0  0  0  0  0  0  0  0  0  0  0  0
  1  2  4  0
  2  3  4  0
  3  4  4  0
  4  5  4  0
  5  6  4  0
  1  6  4  0
  5  7  1  0
  7  8  2  0
  7  9  1  0
 11 12  4  0
  2 12  4  0
  3 10  4  0
 10 11  4  0
 12 13  1  0
 13 14  1  0
 14 15  1  0
 14 16  2  0
 17 11  1  6
 18 19  1  0
 17 18  1  0
 19 17  1  0
 20 21  1  0
 21 22  1  0
 22 23  1  0
 23 24  1  0
 15 20  1  0
 15 24  1  0
M  END
