
     RDKit          3D

 25 28  0  0  0  0  0  0  0  0999 V2000
   44.8468    4.2174    8.4904 N   0  0  0  0  0  0  0  0  0  0  0  0
   44.4554    3.2271    9.3217 C   0  0  0  0  0  0  0  0  0  0  0  0
   44.9895    1.9417    9.2145 C   0  0  0  0  0  0  0  0  0  0  0  0
   45.9121    1.6561    8.2069 C   0  0  0  0  0  0  0  0  0  0  0  0
   46.2941    2.6632    7.3254 C   0  0  0  0  0  0  0  0  0  0  0  0
   45.7502    3.9214    7.5222 C   0  0  0  0  0  0  0  0  0  0  0  0
   47.2729    2.3705    6.2558 C   0  0  0  0  0  0  0  0  0  0  0  0
   48.1842    1.5710    6.4286 O   0  0  0  0  0  0  0  0  0  0  0  0
   47.1096    2.9902    5.0473 N   0  0  0  0  0  0  0  0  0  0  0  0
   43.5509    3.4769   10.3834 N   0  0  0  0  0  0  0  0  0  0  0  0
   44.0657    4.0031   11.6715 C   0  0  1  0  0  0  0  0  0  0  0  0
   44.3287    5.5066   11.6615 C   0  0  0  0  0  0  0  0  0  0  0  0
   45.5328    6.0421   12.1723 C   0  0  0  0  0  0  0  0  0  0  0  0
   45.8234    7.4181   12.1933 C   0  0  0  0  0  0  0  0  0  0  0  0
   44.8299    8.2699   11.6884 C   0  0  0  0  0  0  0  0  0  0  0  0
   43.6229    7.7801   11.1838 C   0  0  0  0  0  0  0  0  0  0  0  0
   43.3788    6.4109   11.1731 C   0  0  0  0  0  0  0  0  0  0  0  0
   43.4610    3.4122   12.9383 C   0  0  0  0  0  0  0  0  0  0  0  0
   44.8813    3.1122   12.5880 C   0  0  0  0  0  0  0  0  0  0  0  0
   47.0141    7.9166   12.7021 N   0  0  0  0  0  0  0  0  0  0  0  0
   47.0115    8.7685   13.9052 C   0  0  0  0  0  0  0  0  0  0  0  0
   48.1646    9.7988   13.8760 C   0  0  0  0  0  0  0  0  0  0  0  0
   49.5157    9.2378   13.7015 N   0  0  0  0  0  0  0  0  0  0  0  0
   49.4856    8.0237   12.8632 C   0  0  0  0  0  0  0  0  0  0  0  0
   48.2637    7.8905   11.9256 C   0  0  0  0  0  0  0  0  0  0  0  0
  1  2  4  0
  2  3  4  0
  3  4  4  0
  4  5  4  0
  5  6  4  0
  1  6  4  0
  5  7  1  0
  7  8  2  0
  7  9  1  0
  2 10  1  0
 11 10  1  6
 11 12  1  0
 13 14  4  0
 14 15  4  0
 15 16  4  0
 16 17  4  0
 12 13  4  0
 12 17  4  0
 18 19  1  0
 11 18  1  0
 19 11  1  0
 14 20  1  0
 21 22  1  0
 22 23  1  0
 23 24  1  0
 24 25  1  0
 20 21  1  0
 20 25  1  0
M  END
