
 OpenBabel12282419013D

 54 57  0  0  0  0  0  0  0  0999 V2000
   46.2340    4.9203    8.1936 N   0  0  0  0  0  0  0  0  0  0  0  0
   45.4717    4.1488    9.0002 C   0  0  0  0  0  0  0  0  0  0  0  0
   45.2973    2.7722    8.9154 C   0  0  0  0  0  0  0  0  0  0  0  0
   45.9886    2.0833    7.9060 C   0  0  0  0  0  0  0  0  0  0  0  0
   46.8183    2.8301    7.0648 C   0  0  0  0  0  0  0  0  0  0  0  0
   46.8852    4.2081    7.2404 C   0  0  0  0  0  0  0  0  0  0  0  0
   47.5751    2.1407    5.9989 C   0  0  0  0  0  0  0  0  0  0  0  0
   48.0432    1.0223    6.1668 O   0  0  0  0  0  0  0  0  0  0  0  0
   47.7732    2.8149    4.8247 N   0  0  0  0  0  0  0  0  0  0  0  0
   44.4012    2.4105    9.9502 C   0  0  0  0  0  0  0  0  0  0  0  0
   44.0578    3.5554   10.6484 C   0  0  0  0  0  0  0  0  0  0  0  0
   44.7183    4.6112   10.0608 N   0  0  0  0  0  0  0  0  0  0  0  0
   44.6625    6.0267   10.3874 C   0  0  0  0  0  0  0  0  0  0  0  0
   45.8473    6.4847   11.2267 C   0  0  0  0  0  0  0  0  0  0  0  0
   45.5579    7.0499   12.4779 N   0  0  0  0  0  0  0  0  0  0  0  0
   47.0095    6.3384   10.8416 O   0  0  0  0  0  0  0  0  0  0  0  0
   46.4404    8.1294   12.9756 C   0  0  0  0  0  0  0  0  0  0  0  0
   46.6399    9.2155   11.9154 C   0  0  0  0  0  0  0  0  0  0  0  0
   47.4376   10.3960   12.4819 C   0  0  0  0  0  0  0  0  0  0  0  0
   48.4149   10.0149   13.5126 N   0  0  0  0  0  0  0  0  0  0  0  0
   48.9205    8.6594   13.3248 C   0  0  0  0  0  0  0  0  0  0  0  0
   47.7944    7.6388   13.5276 C   0  0  0  0  0  0  0  0  0  0  0  0
   44.5189    6.5304   13.3596 C   0  0  0  0  0  0  0  0  0  0  0  0
   43.1020    3.4794   11.8806 C   0  0  0  0  0  0  0  0  0  0  0  0
   43.5878    3.8779   13.2449 C   0  0  0  0  0  0  0  0  0  0  0  0
   43.2313    2.4444   12.9574 C   0  0  0  0  0  0  0  0  0  0  0  0
   49.4932   10.9946   13.6033 C   0  0  0  0  0  0  0  0  0  0  0  0
   45.8878    1.0629    7.7894 H   0  0  0  0  0  0  0  0  0  0  0  0
   47.4842    4.7363    6.5867 H   0  0  0  0  0  0  0  0  0  0  0  0
   47.3910    3.7140    4.7028 H   0  0  0  0  0  0  0  0  0  0  0  0
   48.2979    2.4009    4.1018 H   0  0  0  0  0  0  0  0  0  0  0  0
   44.0621    1.4565   10.1498 H   0  0  0  0  0  0  0  0  0  0  0  0
   43.7624    6.2164   10.9340 H   0  0  0  0  0  0  0  0  0  0  0  0
   44.6895    6.5714    9.4668 H   0  0  0  0  0  0  0  0  0  0  0  0
   45.9257    8.5513   13.8134 H   0  0  0  0  0  0  0  0  0  0  0  0
   47.1715    8.8003   11.0848 H   0  0  0  0  0  0  0  0  0  0  0  0
   45.6791    9.5704   11.6058 H   0  0  0  0  0  0  0  0  0  0  0  0
   46.7487   11.0927   12.9120 H   0  0  0  0  0  0  0  0  0  0  0  0
   47.9918   10.8153   11.6683 H   0  0  0  0  0  0  0  0  0  0  0  0
   49.6991    8.4716   14.0343 H   0  0  0  0  0  0  0  0  0  0  0  0
   49.3011    8.5646   12.3293 H   0  0  0  0  0  0  0  0  0  0  0  0
   47.6886    7.4494   14.5754 H   0  0  0  0  0  0  0  0  0  0  0  0
   48.0606    6.7526   12.9904 H   0  0  0  0  0  0  0  0  0  0  0  0
   43.9733    5.7615   12.8536 H   0  0  0  0  0  0  0  0  0  0  0  0
   43.8518    7.3221   13.6300 H   0  0  0  0  0  0  0  0  0  0  0  0
   44.9692    6.1264   14.2422 H   0  0  0  0  0  0  0  0  0  0  0  0
   42.3061    3.7726   11.2284 H   0  0  0  0  0  0  0  0  0  0  0  0
   44.6107    4.1568   13.3888 H   0  0  0  0  0  0  0  0  0  0  0  0
   43.2887    4.6014   13.9743 H   0  0  0  0  0  0  0  0  0  0  0  0
   42.3543    2.0134   13.3933 H   0  0  0  0  0  0  0  0  0  0  0  0
   43.7375    1.5061   13.0481 H   0  0  0  0  0  0  0  0  0  0  0  0
   49.0774   11.9710   13.7402 H   0  0  0  0  0  0  0  0  0  0  0  0
   50.0693   10.9754   12.7018 H   0  0  0  0  0  0  0  0  0  0  0  0
   50.1233   10.7555   14.4344 H   0  0  0  0  0  0  0  0  0  0  0  0
  1  2  2  0  0  0  0
  1  6  1  0  0  0  0
  2  3  1  0  0  0  0
  2 12  1  0  0  0  0
  3  4  2  0  0  0  0
  3 10  1  0  0  0  0
  4  5  1  0  0  0  0
  4 28  1  0  0  0  0
  5  6  2  0  0  0  0
  5  7  1  0  0  0  0
  6 29  1  0  0  0  0
  7  8  2  0  0  0  0
  7  9  1  0  0  0  0
  9 30  1  0  0  0  0
  9 31  1  0  0  0  0
 10 11  2  0  0  0  0
 10 32  1  0  0  0  0
 11 12  1  0  0  0  0
 12 13  1  0  0  0  0
 13 14  1  0  0  0  0
 13 33  1  0  0  0  0
 13 34  1  0  0  0  0
 14 15  1  0  0  0  0
 14 16  2  0  0  0  0
 15 17  1  0  0  0  0
 15 23  1  0  0  0  0
 17 18  1  0  0  0  0
 17 22  1  0  0  0  0
 17 35  1  0  0  0  0
 18 19  1  0  0  0  0
 18 36  1  0  0  0  0
 18 37  1  0  0  0  0
 19 20  1  0  0  0  0
 19 38  1  0  0  0  0
 19 39  1  0  0  0  0
 20 21  1  0  0  0  0
 20 27  1  0  0  0  0
 21 22  1  0  0  0  0
 21 40  1  0  0  0  0
 21 41  1  0  0  0  0
 22 42  1  0  0  0  0
 22 43  1  0  0  0  0
 23 44  1  0  0  0  0
 23 45  1  0  0  0  0
 23 46  1  0  0  0  0
 24 11  1  0  0  0  0
 24 25  1  0  0  0  0
 24 47  1  0  0  0  0
 25 26  1  0  0  0  0
 25 48  1  0  0  0  0
 25 49  1  0  0  0  0
 26 24  1  0  0  0  0
 26 50  1  0  0  0  0
 26 51  1  0  0  0  0
 27 52  1  0  0  0  0
 27 53  1  0  0  0  0
 27 54  1  0  0  0  0
M  END
$$$$
