
 OpenBabel12282419013D

 44 45  0  0  0  0  0  0  0  0999 V2000
   44.9461    4.0764    8.2909 N   0  0  0  0  0  0  0  0  0  0  0  0
   44.6515    3.1125    9.1838 C   0  0  0  0  0  0  0  0  0  0  0  0
   45.2138    1.8403    9.0800 C   0  0  0  0  0  0  0  0  0  0  0  0
   46.1275    1.5586    8.0612 C   0  0  0  0  0  0  0  0  0  0  0  0
   46.4584    2.5595    7.1529 C   0  0  0  0  0  0  0  0  0  0  0  0
   45.8325    3.7877    7.3027 C   0  0  0  0  0  0  0  0  0  0  0  0
   47.4096    2.3784    6.0338 C   0  0  0  0  0  0  0  0  0  0  0  0
   48.4069    1.6776    6.1498 O   0  0  0  0  0  0  0  0  0  0  0  0
   47.1271    2.9942    4.8458 N   0  0  0  0  0  0  0  0  0  0  0  0
   43.7129    3.3353   10.1922 N   0  0  0  0  0  0  0  0  0  0  0  0
   43.6298    4.6802   10.7734 C   0  0  0  0  0  0  0  0  0  0  0  0
   43.6910    4.7017   12.3384 C   0  0  0  0  0  0  0  0  0  0  0  0
   45.0422    5.2562   12.8446 C   0  0  0  0  0  0  0  0  0  0  0  0
   46.0350    4.3767   13.3176 C   0  0  0  0  0  0  0  0  0  0  0  0
   47.2687    4.8464   13.7723 C   0  0  0  0  0  0  0  0  0  0  0  0
   47.5426    6.2101   13.7652 C   0  0  0  0  0  0  0  0  0  0  0  0
   46.5855    7.1154   13.2974 C   0  0  0  0  0  0  0  0  0  0  0  0
   45.3428    6.6305   12.8500 C   0  0  0  0  0  0  0  0  0  0  0  0
   42.4630    5.4638   12.8895 C   0  0  0  0  0  0  0  0  0  0  0  0
   43.5485    3.2415   12.8387 C   0  0  0  0  0  0  0  0  0  0  0  0
   46.8635    8.5971   13.3163 C   0  0  0  0  0  0  0  0  0  0  0  0
   47.3742    9.0558   12.0304 N   0  0  0  0  0  0  0  0  0  0  0  0
   44.9545    1.1058    9.7569 H   0  0  0  0  0  0  0  0  0  0  0  0
   46.5513    0.6208    7.9834 H   0  0  0  0  0  0  0  0  0  0  0  0
   46.0540    4.5295    6.6203 H   0  0  0  0  0  0  0  0  0  0  0  0
   46.3230    3.5559    4.7615 H   0  0  0  0  0  0  0  0  0  0  0  0
   47.7279    2.8758    4.0749 H   0  0  0  0  0  0  0  0  0  0  0  0
   43.1236    2.6112   10.5046 H   0  0  0  0  0  0  0  0  0  0  0  0
   42.7053    5.1230   10.4665 H   0  0  0  0  0  0  0  0  0  0  0  0
   44.4825    5.2229   10.4223 H   0  0  0  0  0  0  0  0  0  0  0  0
   45.8465    3.3621   13.3284 H   0  0  0  0  0  0  0  0  0  0  0  0
   47.9789    4.1804   14.1144 H   0  0  0  0  0  0  0  0  0  0  0  0
   48.4540    6.5542   14.1059 H   0  0  0  0  0  0  0  0  0  0  0  0
   44.6326    7.3011   12.5168 H   0  0  0  0  0  0  0  0  0  0  0  0
   42.5065    6.4855   12.5745 H   0  0  0  0  0  0  0  0  0  0  0  0
   42.4662    5.4197   13.9586 H   0  0  0  0  0  0  0  0  0  0  0  0
   41.5669    5.0134   12.5166 H   0  0  0  0  0  0  0  0  0  0  0  0
   44.3757    2.6614   12.4863 H   0  0  0  0  0  0  0  0  0  0  0  0
   42.6361    2.8244   12.4666 H   0  0  0  0  0  0  0  0  0  0  0  0
   43.5354    3.2307   13.9086 H   0  0  0  0  0  0  0  0  0  0  0  0
   47.5892    8.8061   14.0743 H   0  0  0  0  0  0  0  0  0  0  0  0
   45.9468    9.1105   13.5186 H   0  0  0  0  0  0  0  0  0  0  0  0
   48.2495    8.5757   11.8214 H   0  0  0  0  0  0  0  0  0  0  0  0
   47.5390   10.0616   12.0692 H   0  0  0  0  0  0  0  0  0  0  0  0
  1  2  2  0  0  0  0
  1  6  1  0  0  0  0
  2  3  1  0  0  0  0
  2 10  1  0  0  0  0
  3  4  2  0  0  0  0
  3 23  1  0  0  0  0
  4  5  1  0  0  0  0
  4 24  1  0  0  0  0
  5  6  2  0  0  0  0
  5  7  1  0  0  0  0
  6 25  1  0  0  0  0
  7  8  2  0  0  0  0
  7  9  1  0  0  0  0
  9 26  1  0  0  0  0
  9 27  1  0  0  0  0
 10 11  1  0  0  0  0
 10 28  1  0  0  0  0
 11 12  1  0  0  0  0
 11 29  1  0  0  0  0
 11 30  1  0  0  0  0
 12 13  1  0  0  0  0
 12 19  1  0  0  0  0
 13 14  2  0  0  0  0
 13 18  1  0  0  0  0
 14 15  1  0  0  0  0
 14 31  1  0  0  0  0
 15 16  2  0  0  0  0
 15 32  1  0  0  0  0
 16 17  1  0  0  0  0
 16 33  1  0  0  0  0
 17 18  2  0  0  0  0
 17 21  1  0  0  0  0
 18 34  1  0  0  0  0
 19 35  1  0  0  0  0
 19 36  1  0  0  0  0
 19 37  1  0  0  0  0
 20 12  1  0  0  0  0
 20 38  1  0  0  0  0
 20 39  1  0  0  0  0
 20 40  1  0  0  0  0
 21 22  1  0  0  0  0
 21 41  1  0  0  0  0
 21 42  1  0  0  0  0
 22 43  1  0  0  0  0
 22 44  1  0  0  0  0
M  END
$$$$
