
 OpenBabel12282419013D

 45 48  0  0  0  0  0  0  0  0999 V2000
   46.2717    4.9385    8.5156 N   0  0  0  0  0  0  0  0  0  0  0  0
   45.3720    4.3693    9.3440 C   0  0  0  0  0  0  0  0  0  0  0  0
   44.9275    3.0502    9.3046 C   0  0  0  0  0  0  0  0  0  0  0  0
   45.4620    2.2021    8.3175 C   0  0  0  0  0  0  0  0  0  0  0  0
   46.4103    2.7397    7.4419 C   0  0  0  0  0  0  0  0  0  0  0  0
   46.7549    4.0821    7.5793 C   0  0  0  0  0  0  0  0  0  0  0  0
   47.0578    1.9609    6.3610 C   0  0  0  0  0  0  0  0  0  0  0  0
   47.0797    0.7367    6.3846 O   0  0  0  0  0  0  0  0  0  0  0  0
   47.6088    2.6422    5.3121 N   0  0  0  0  0  0  0  0  0  0  0  0
   43.9664    2.9060   10.3368 C   0  0  0  0  0  0  0  0  0  0  0  0
   43.8615    4.1197   10.9818 C   0  0  0  0  0  0  0  0  0  0  0  0
   44.7280    5.0054   10.3822 N   0  0  0  0  0  0  0  0  0  0  0  0
   44.8690    6.4211   10.6901 C   0  0  0  0  0  0  0  0  0  0  0  0
   45.9945    6.7268   11.6615 C   0  0  0  0  0  0  0  0  0  0  0  0
   45.9629    7.8962   12.4069 N   0  0  0  0  0  0  0  0  0  0  0  0
   46.9106    5.9079   11.8009 O   0  0  0  0  0  0  0  0  0  0  0  0
   42.8934    4.4325   12.1583 C   0  0  0  0  0  0  0  0  0  0  0  0
   43.1684    3.9113   13.5451 C   0  0  0  0  0  0  0  0  0  0  0  0
   43.3707    5.3639   13.2410 C   0  0  0  0  0  0  0  0  0  0  0  0
   46.9576    8.0930   13.4639 C   0  0  0  0  0  0  0  0  0  0  0  0
   47.9369    9.2184   13.0684 C   0  0  0  0  0  0  0  0  0  0  0  0
   47.2587   10.4837   12.7053 N   0  0  0  0  0  0  0  0  0  0  0  0
   46.2441   10.2297   11.6578 C   0  0  0  0  0  0  0  0  0  0  0  0
   45.2477    9.1254   12.0571 C   0  0  0  0  0  0  0  0  0  0  0  0
   45.1643    1.2168    8.2423 H   0  0  0  0  0  0  0  0  0  0  0  0
   47.4407    4.4608    6.9075 H   0  0  0  0  0  0  0  0  0  0  0  0
   47.5880    3.6264    5.2990 H   0  0  0  0  0  0  0  0  0  0  0  0
   48.0265    2.1488    4.5696 H   0  0  0  0  0  0  0  0  0  0  0  0
   43.4405    2.0477   10.5641 H   0  0  0  0  0  0  0  0  0  0  0  0
   43.9510    6.7666   11.1177 H   0  0  0  0  0  0  0  0  0  0  0  0
   45.1054    6.9179    9.7724 H   0  0  0  0  0  0  0  0  0  0  0  0
   42.0536    4.3790   11.4974 H   0  0  0  0  0  0  0  0  0  0  0  0
   42.3570    3.6042   14.1714 H   0  0  0  0  0  0  0  0  0  0  0  0
   43.7785    3.1324   13.9525 H   0  0  0  0  0  0  0  0  0  0  0  0
   44.3604    5.7685   13.1999 H   0  0  0  0  0  0  0  0  0  0  0  0
   43.0125    6.2806   13.6609 H   0  0  0  0  0  0  0  0  0  0  0  0
   46.4600    8.3602   14.3727 H   0  0  0  0  0  0  0  0  0  0  0  0
   47.5058    7.1846   13.6022 H   0  0  0  0  0  0  0  0  0  0  0  0
   48.5124    8.8884   12.2289 H   0  0  0  0  0  0  0  0  0  0  0  0
   48.5492    9.4205   13.9223 H   0  0  0  0  0  0  0  0  0  0  0  0
   47.9483   11.1482   12.3540 H   0  0  0  0  0  0  0  0  0  0  0  0
   46.7447    9.9320   10.7602 H   0  0  0  0  0  0  0  0  0  0  0  0
   45.6887   11.1334   11.5173 H   0  0  0  0  0  0  0  0  0  0  0  0
   44.5904    8.9295   11.2358 H   0  0  0  0  0  0  0  0  0  0  0  0
   44.6861    9.4545   12.9064 H   0  0  0  0  0  0  0  0  0  0  0  0
  1  2  2  0  0  0  0
  1  6  1  0  0  0  0
  2  3  1  0  0  0  0
  2 12  1  0  0  0  0
  3  4  2  0  0  0  0
  3 10  1  0  0  0  0
  4  5  1  0  0  0  0
  4 25  1  0  0  0  0
  5  6  2  0  0  0  0
  5  7  1  0  0  0  0
  6 26  1  0  0  0  0
  7  8  2  0  0  0  0
  7  9  1  0  0  0  0
  9 27  1  0  0  0  0
  9 28  1  0  0  0  0
 10 11  2  0  0  0  0
 10 29  1  0  0  0  0
 11 12  1  0  0  0  0
 12 13  1  0  0  0  0
 13 14  1  0  0  0  0
 13 30  1  0  0  0  0
 13 31  1  0  0  0  0
 14 15  1  0  0  0  0
 14 16  2  0  0  0  0
 15 20  1  0  0  0  0
 15 24  1  0  0  0  0
 17 11  1  0  0  0  0
 17 18  1  0  0  0  0
 17 32  1  0  0  0  0
 18 19  1  0  0  0  0
 18 33  1  0  0  0  0
 18 34  1  0  0  0  0
 19 17  1  0  0  0  0
 19 35  1  0  0  0  0
 19 36  1  0  0  0  0
 20 21  1  0  0  0  0
 20 37  1  0  0  0  0
 20 38  1  0  0  0  0
 21 22  1  0  0  0  0
 21 39  1  0  0  0  0
 21 40  1  0  0  0  0
 22 23  1  0  0  0  0
 22 41  1  0  0  0  0
 23 24  1  0  0  0  0
 23 42  1  0  0  0  0
 23 43  1  0  0  0  0
 24 44  1  0  0  0  0
 24 45  1  0  0  0  0
M  END
$$$$
